Version 4
SHEET 1 900 680
WIRE -112 -160 -112 -192
WIRE -112 -48 -112 -80
WIRE 400 -48 -112 -48
WIRE 496 -16 -32 -16
WIRE -112 0 -112 -48
WIRE 96 80 0 80
WIRE 0 96 0 80
WIRE -112 144 -112 80
WIRE -32 144 -32 -16
WIRE -32 144 -112 144
WIRE 96 144 -32 144
WIRE 400 144 400 -48
WIRE 400 144 320 144
WIRE -288 192 -288 112
WIRE -112 192 -112 144
WIRE 96 208 64 208
WIRE 496 208 496 -16
WIRE 496 208 320 208
WIRE 96 272 64 272
WIRE 416 272 320 272
WIRE -288 352 -288 272
WIRE -112 352 -112 256
WIRE 416 352 416 336
FLAG 0 96 0
FLAG 416 352 0
FLAG -112 352 0
FLAG -112 -192 VCC
FLAG 320 80 VCC
FLAG -288 112 VCC
FLAG -288 352 0
FLAG 64 208 OUT
FLAG 64 272 VCC
SYMBOL LM555 208 176 R0
SYMATTR InstName U1
SYMBOL cap 400 272 R0
SYMATTR InstName C1
SYMATTR Value 0.01µ
SYMBOL cap -128 192 R0
SYMATTR InstName C2
SYMATTR Value {C1}
SYMBOL res -128 -16 R0
SYMATTR InstName R2
SYMATTR Value {RB}
SYMBOL res -128 -176 R0
SYMATTR InstName R1
SYMATTR Value {RA}
SYMBOL voltage -288 176 R0
SYMATTR InstName V1
SYMATTR Value 5
TEXT 664 104 Left 2 !.param RA =1000\n.param RB =56000\n.param C1 =0.01u
TEXT -332 376 Left 2 !.tran 1ms
