Version 4
SHEET 1 1188 692
WIRE 512 -480 432 -480
WIRE 624 -480 512 -480
WIRE -80 -464 -192 -464
WIRE 0 -464 -80 -464
WIRE 80 -464 0 -464
WIRE 176 -464 80 -464
WIRE -192 -416 -192 -464
WIRE 512 -400 512 -480
WIRE 624 -384 624 -480
WIRE -80 -368 -80 -464
WIRE 0 -368 0 -464
WIRE 80 -368 80 -464
WIRE -192 -272 -192 -336
WIRE -80 -240 -80 -304
WIRE 0 -240 0 -304
WIRE 80 -240 80 -304
WIRE 512 -240 512 -320
WIRE 624 -240 624 -320
WIRE 624 -240 512 -240
WIRE 1072 -96 1072 -192
WIRE 64 64 -16 64
WIRE 112 64 64 64
WIRE -16 80 -16 64
WIRE 288 96 224 96
WIRE 320 96 288 96
WIRE 656 96 592 96
WIRE 976 96 880 96
WIRE 592 112 592 96
WIRE 112 160 32 160
WIRE 320 160 224 160
WIRE 368 160 320 160
WIRE 512 160 512 -240
WIRE 512 160 432 160
WIRE 656 160 512 160
WIRE 1072 160 1072 -16
WIRE 1072 160 880 160
WIRE -16 176 -16 160
WIRE 32 176 32 160
WIRE 32 176 -16 176
WIRE -16 192 -16 176
WIRE 656 224 464 224
WIRE 992 224 880 224
WIRE 1072 224 1072 160
WIRE 1072 224 992 224
WIRE 992 272 992 224
WIRE 656 288 560 288
WIRE 928 288 880 288
WIRE 928 336 928 288
WIRE 464 352 464 224
WIRE 576 352 464 352
WIRE 992 368 992 336
WIRE 928 416 928 400
WIRE 464 544 464 352
WIRE 528 544 464 544
WIRE 640 544 608 544
WIRE 688 544 640 544
WIRE 640 592 640 544
WIRE 640 672 640 656
FLAG -16 192 0
FLAG 64 64 dc
FLAG 288 96 w
FLAG 320 160 enc
FLAG 592 112 0
FLAG 560 288 VCC
IOPIN 560 288 In
FLAG 576 352 PWM
IOPIN 576 352 Out
FLAG 688 544 speed
IOPIN 688 544 Out
FLAG 640 672 0
FLAG 928 416 0
FLAG 976 96 VCC
IOPIN 976 96 In
FLAG -192 -272 0
FLAG 992 368 0
FLAG -80 -240 0
FLAG 0 -240 0
FLAG 80 -240 0
FLAG 176 -464 VCC
IOPIN 176 -464 Out
FLAG 432 -480 VCC
IOPIN 432 -480 In
FLAG 1072 -192 VCC
IOPIN 1072 -192 In
SYMBOL voltage -16 64 R0
WINDOW 0 -57 27 Left 2
WINDOW 3 -77 166 Left 2
WINDOW 123 0 0 Left 2
WINDOW 39 0 0 Left 2
SYMATTR InstName VDC
SYMATTR Value PWL(0 0 1m 10 100m 10 101m 0)
SYMBOL DC_motor_model 160 112 R0
SYMATTR InstName X1
SYMBOL cap 432 144 R90
WINDOW 0 0 32 VBottom 2
WINDOW 3 32 32 VTop 2
SYMATTR InstName C1
SYMATTR Value {C1}
SYMBOL res 496 -416 R0
SYMATTR InstName R1
SYMATTR Value {R1}
SYMBOL diode 640 -320 R180
WINDOW 0 24 64 Left 2
WINDOW 3 24 0 Left 2
SYMATTR InstName D1
SYMATTR Value 1N4148
SYMBOL LM555 768 192 R0
SYMATTR InstName U1
SYMBOL res 624 528 R90
WINDOW 0 0 56 VBottom 2
WINDOW 3 32 56 VTop 2
SYMATTR InstName R3
SYMATTR Value {R3}
SYMBOL cap 624 592 R0
SYMATTR InstName C3
SYMATTR Value {C3}
SYMBOL cap 912 336 R0
SYMATTR InstName C4
SYMATTR Value 0.1µ
SYMBOL voltage -192 -432 R0
WINDOW 123 0 0 Left 2
WINDOW 39 0 0 Left 2
SYMATTR InstName V1
SYMATTR Value 5
SYMBOL cap -16 -368 R0
SYMATTR InstName C5
SYMATTR Value 1µ
SYMBOL cap 64 -368 R0
SYMATTR InstName C6
SYMATTR Value 1µ
SYMBOL cap 976 272 R0
SYMATTR InstName C2
SYMATTR Value {C2}
SYMBOL cap -96 -368 R0
SYMATTR InstName C7
SYMATTR Value 47µ
SYMBOL res 1056 -112 R0
SYMATTR InstName R2
SYMATTR Value {R2}
TEXT -72 264 Left 2 !.tran 0.12
TEXT 528 -536 Left 2 ;Trigger
TEXT 712 -128 Left 2 ;One-Shot
TEXT 552 456 Left 2 ;Low-Pass Filter
TEXT -16 -520 Left 2 ;VCC
TEXT -64 408 Left 2 !.param R1 = 1k\n.param C1 = 10n\n.param R2 = 120k\n.param C2 = 4.7n\n.param R3 = 100k\n.param C3 = 47n
LINE Normal -160 128 -160 128 2
RECTANGLE Normal 352 304 -128 -32 2
RECTANGLE Normal 656 -208 464 -512 2
RECTANGLE Normal 256 -208 -240 -496 2
RECTANGLE Normal 784 688 432 480 2
RECTANGLE Normal 1152 432 448 -112 2
