Version 4
SHEET 1 1028 680
WIRE 496 -848 400 -848
WIRE 768 -848 720 -848
WIRE 400 -832 400 -848
WIRE 496 -784 336 -784
WIRE 944 -784 720 -784
WIRE 496 -720 448 -720
WIRE 800 -720 720 -720
WIRE 880 -720 800 -720
WIRE 800 -704 800 -720
WIRE 880 -704 880 -720
WIRE 944 -704 880 -704
WIRE 496 -656 448 -656
WIRE 752 -656 720 -656
WIRE 800 -608 800 -640
WIRE -64 -576 -64 -640
WIRE 752 -560 752 -592
WIRE -64 -464 -64 -496
WIRE 336 -464 336 -784
WIRE 880 -464 880 -704
WIRE 880 -464 336 -464
WIRE 144 -320 -64 -320
WIRE 320 -320 224 -320
WIRE 464 -320 384 -320
WIRE 592 -320 528 -320
WIRE 720 -320 656 -320
WIRE 848 -320 784 -320
WIRE 1008 -320 912 -320
WIRE 1008 -288 1008 -320
WIRE -64 -144 -64 -320
WIRE 144 -144 -64 -144
WIRE 320 -144 224 -144
WIRE 464 -144 384 -144
WIRE 592 -144 528 -144
WIRE 720 -144 656 -144
WIRE 848 -144 784 -144
WIRE 1008 -144 912 -144
WIRE 1008 -112 1008 -144
WIRE -192 48 -352 48
WIRE -64 48 -64 -144
WIRE -64 48 -112 48
WIRE 144 48 -64 48
WIRE 320 48 224 48
WIRE 464 48 384 48
WIRE 592 48 528 48
WIRE 720 48 656 48
WIRE 848 48 784 48
WIRE 1008 48 912 48
WIRE 1008 80 1008 48
WIRE -64 224 -64 48
WIRE 144 224 -64 224
WIRE 320 224 224 224
WIRE 464 224 384 224
WIRE 592 224 528 224
WIRE 720 224 656 224
WIRE 848 224 784 224
WIRE 1008 224 912 224
WIRE 1008 256 1008 224
FLAG 1008 -288 0
FLAG 1008 -112 0
FLAG 1008 80 0
FLAG 1008 256 0
FLAG -64 -464 0
FLAG -64 -640 VCC
FLAG 400 -832 0
FLAG 800 -608 0
FLAG 944 -864 VCC
FLAG 768 -848 VCC
FLAG 448 -720 OUT
FLAG 448 -656 VCC
FLAG 752 -560 0
FLAG -352 48 OUT
SYMBOL res 240 -336 R90
WINDOW 0 0 56 VBottom 2
WINDOW 3 32 56 VTop 2
SYMATTR InstName R1
SYMATTR Value 33
SYMBOL LED 320 -304 R270
WINDOW 0 72 32 VTop 2
WINDOW 3 0 32 VBottom 2
SYMATTR InstName D1
SYMATTR Value QTLP690C
SYMBOL LED 464 -304 R270
WINDOW 0 72 32 VTop 2
WINDOW 3 0 32 VBottom 2
SYMATTR InstName D2
SYMATTR Value QTLP690C
SYMBOL LED 592 -304 R270
WINDOW 0 72 32 VTop 2
WINDOW 3 0 32 VBottom 2
SYMATTR InstName D3
SYMATTR Value QTLP690C
SYMBOL LED 720 -304 R270
WINDOW 0 72 32 VTop 2
WINDOW 3 0 32 VBottom 2
SYMATTR InstName D4
SYMATTR Value QTLP690C
SYMBOL LED 848 -304 R270
WINDOW 0 72 32 VTop 2
WINDOW 3 0 32 VBottom 2
SYMATTR InstName D5
SYMATTR Value QTLP690C
SYMBOL res 240 -160 R90
WINDOW 0 0 56 VBottom 2
WINDOW 3 32 56 VTop 2
SYMATTR InstName R2
SYMATTR Value 33
SYMBOL LED 320 -128 R270
WINDOW 0 72 32 VTop 2
WINDOW 3 0 32 VBottom 2
SYMATTR InstName D6
SYMATTR Value QTLP690C
SYMBOL LED 464 -128 R270
WINDOW 0 72 32 VTop 2
WINDOW 3 0 32 VBottom 2
SYMATTR InstName D7
SYMATTR Value QTLP690C
SYMBOL LED 592 -128 R270
WINDOW 0 72 32 VTop 2
WINDOW 3 0 32 VBottom 2
SYMATTR InstName D8
SYMATTR Value QTLP690C
SYMBOL LED 720 -128 R270
WINDOW 0 72 32 VTop 2
WINDOW 3 0 32 VBottom 2
SYMATTR InstName D9
SYMATTR Value QTLP690C
SYMBOL LED 848 -128 R270
WINDOW 0 72 32 VTop 2
WINDOW 3 0 32 VBottom 2
SYMATTR InstName D10
SYMATTR Value QTLP690C
SYMBOL res 240 32 R90
WINDOW 0 0 56 VBottom 2
WINDOW 3 32 56 VTop 2
SYMATTR InstName R3
SYMATTR Value 33
SYMBOL LED 320 64 R270
WINDOW 0 72 32 VTop 2
WINDOW 3 0 32 VBottom 2
SYMATTR InstName D11
SYMATTR Value QTLP690C
SYMBOL LED 464 64 R270
WINDOW 0 72 32 VTop 2
WINDOW 3 0 32 VBottom 2
SYMATTR InstName D12
SYMATTR Value QTLP690C
SYMBOL LED 592 64 R270
WINDOW 0 72 32 VTop 2
WINDOW 3 0 32 VBottom 2
SYMATTR InstName D13
SYMATTR Value QTLP690C
SYMBOL LED 720 64 R270
WINDOW 0 72 32 VTop 2
WINDOW 3 0 32 VBottom 2
SYMATTR InstName D14
SYMATTR Value QTLP690C
SYMBOL LED 848 64 R270
WINDOW 0 72 32 VTop 2
WINDOW 3 0 32 VBottom 2
SYMATTR InstName D15
SYMATTR Value QTLP690C
SYMBOL res 240 208 R90
WINDOW 0 0 56 VBottom 2
WINDOW 3 32 56 VTop 2
SYMATTR InstName R4
SYMATTR Value 33
SYMBOL LED 320 240 R270
WINDOW 0 72 32 VTop 2
WINDOW 3 0 32 VBottom 2
SYMATTR InstName D16
SYMATTR Value QTLP690C
SYMBOL LED 464 240 R270
WINDOW 0 72 32 VTop 2
WINDOW 3 0 32 VBottom 2
SYMATTR InstName D17
SYMATTR Value QTLP690C
SYMBOL LED 592 240 R270
WINDOW 0 72 32 VTop 2
WINDOW 3 0 32 VBottom 2
SYMATTR InstName D18
SYMATTR Value QTLP690C
SYMBOL LED 720 240 R270
WINDOW 0 72 32 VTop 2
WINDOW 3 0 32 VBottom 2
SYMATTR InstName D19
SYMATTR Value QTLP690C
SYMBOL LED 848 240 R270
WINDOW 0 72 32 VTop 2
WINDOW 3 0 32 VBottom 2
SYMATTR InstName D20
SYMATTR Value QTLP690C
SYMBOL res -208 64 R270
WINDOW 0 32 56 VTop 2
WINDOW 3 0 56 VBottom 2
SYMATTR InstName R6
SYMATTR Value 0.00001
SYMBOL LM555 608 -752 R0
SYMATTR InstName U2
SYMBOL res 928 -800 R0
SYMATTR InstName R7
SYMATTR Value 7.5k
SYMBOL voltage -64 -592 R0
WINDOW 123 0 0 Left 2
WINDOW 39 0 0 Left 2
SYMATTR InstName V2
SYMATTR Value 9
SYMBOL cap 784 -704 R0
SYMATTR InstName C2
SYMATTR Value 0.001µ
SYMBOL res 928 -880 R0
SYMATTR InstName R8
SYMATTR Value 22k
SYMBOL cap 736 -656 R0
SYMATTR InstName C3
SYMATTR Value 0.001µ
TEXT 176 384 Left 2 !.param R_LM = .43
TEXT -64 360 Left 2 !.tran 0 105.26u 10u
TEXT 184 352 Left 2 !.include diode.lib
