Version 4
SHEET 1 1492 1016
WIRE -544 0 -624 0
WIRE -320 0 -416 0
WIRE -96 32 -176 32
WIRE -32 32 -96 32
WIRE 32 32 -32 32
WIRE 192 32 32 32
WIRE -624 48 -624 0
WIRE -416 48 -416 0
WIRE -176 80 -176 32
WIRE -96 80 -96 32
WIRE -32 80 -32 32
WIRE 32 80 32 32
WIRE -624 160 -624 128
WIRE -416 160 -416 128
WIRE 512 192 512 144
WIRE 608 192 608 144
WIRE -176 208 -176 160
WIRE -96 208 -96 144
WIRE -32 208 -32 144
WIRE 32 208 32 144
WIRE 464 256 384 256
WIRE -96 304 -176 304
WIRE -32 304 -96 304
WIRE 32 304 -32 304
WIRE 192 304 32 304
WIRE 464 304 272 304
WIRE 704 304 656 304
WIRE 832 304 784 304
WIRE -624 336 -624 288
WIRE -176 352 -176 304
WIRE -96 352 -96 304
WIRE -32 352 -32 304
WIRE 32 352 32 304
WIRE 464 352 416 352
WIRE 992 384 992 192
WIRE 1344 400 1264 400
WIRE 832 432 832 304
WIRE 928 432 832 432
WIRE 1120 432 1056 432
WIRE -624 480 -624 416
WIRE -176 480 -176 432
WIRE -96 480 -96 416
WIRE -32 480 -32 416
WIRE 32 480 32 416
WIRE 928 480 832 480
WIRE 1120 480 1056 480
WIRE 1344 480 1264 480
WIRE 512 512 512 464
WIRE 608 512 608 464
WIRE 464 576 384 576
WIRE 272 624 272 304
WIRE 464 624 272 624
WIRE 704 624 656 624
WIRE 832 624 832 480
WIRE 832 624 784 624
WIRE 992 624 992 528
WIRE 416 672 416 352
WIRE 464 672 416 672
WIRE -48 688 -144 688
WIRE 160 688 32 688
WIRE 272 688 272 624
WIRE 272 688 160 688
WIRE 160 704 160 688
WIRE 992 768 992 736
WIRE 160 784 160 768
WIRE 416 832 416 672
WIRE 864 832 416 832
WIRE 1344 832 1344 480
WIRE 1344 832 1120 832
WIRE 992 976 992 896
FLAG -176 480 0
FLAG 384 256 CW
IOPIN 384 256 In
FLAG 384 576 CCW
IOPIN 384 576 In
FLAG 192 304 5V
IOPIN 192 304 BiDir
FLAG 512 144 5V
IOPIN 512 144 BiDir
FLAG 512 464 5V
IOPIN 512 464 BiDir
FLAG 32 480 0
FLAG -32 480 0
FLAG -96 480 0
FLAG -176 208 0
FLAG 192 32 10V
IOPIN 192 32 BiDir
FLAG 32 208 0
FLAG -32 208 0
FLAG -96 208 0
FLAG 608 144 10V
IOPIN 608 144 BiDir
FLAG 608 464 10V
IOPIN 608 464 BiDir
FLAG -144 688 REF
IOPIN -144 688 BiDir
FLAG 160 784 0
FLAG 992 192 10V
IOPIN 992 192 BiDir
FLAG 992 624 0
FLAG 1344 400 omega
IOPIN 1344 400 Out
FLAG 992 976 0
FLAG 992 736 5V
IOPIN 992 736 BiDir
FLAG -624 288 REF
FLAG -624 480 0
FLAG -624 160 0
FLAG -544 0 CW
FLAG -416 160 0
FLAG -320 0 CC
SYMBOL voltage -176 336 R0
WINDOW 123 0 0 Left 2
WINDOW 39 0 0 Left 2
SYMATTR InstName VCC
SYMATTR Value 5
SYMBOL feedback_control 512 240 R0
WINDOW 0 0 0 Left 2
SYMATTR InstName X3
SYMBOL feedback_control 512 560 R0
WINDOW 0 0 0 Left 2
SYMATTR InstName X2
SYMBOL cap -112 352 R0
SYMATTR InstName C1
SYMATTR Value 47µ
SYMBOL cap -48 352 R0
SYMATTR InstName C2
SYMATTR Value 0.1µ
SYMBOL cap 16 352 R0
SYMATTR InstName C3
SYMATTR Value 0.1µ
SYMBOL voltage -176 64 R0
WINDOW 123 0 0 Left 2
WINDOW 39 0 0 Left 2
SYMATTR InstName V10V
SYMATTR Value 10
SYMBOL cap -112 80 R0
SYMATTR InstName C4
SYMATTR Value 47µ
SYMBOL cap -48 80 R0
SYMATTR InstName C5
SYMATTR Value 0.1µ
SYMBOL cap 16 80 R0
SYMATTR InstName C6
SYMATTR Value 0.1µ
SYMBOL res 48 672 R90
WINDOW 0 0 56 VBottom 2
WINDOW 3 32 56 VTop 2
SYMATTR InstName R1
SYMATTR Value 1000000
SYMBOL cap 144 704 R0
SYMATTR InstName C7
SYMATTR Value 47n
SYMBOL res 800 288 R90
WINDOW 0 0 56 VBottom 2
WINDOW 3 32 56 VTop 2
SYMATTR InstName RB1
SYMATTR Value 642
SYMBOL res 800 608 R90
WINDOW 0 0 56 VBottom 2
WINDOW 3 32 56 VTop 2
SYMATTR InstName RB2
SYMATTR Value 642
SYMBOL DC_Motor_Driver 992 448 R0
SYMATTR InstName X1
SYMBOL DC_motor_model 1184 448 R0
SYMATTR InstName X4
SYMBOL tach 1008 816 R0
SYMATTR InstName X5
SYMBOL voltage -624 320 R0
WINDOW 123 0 0 Left 2
WINDOW 39 0 0 Left 2
SYMATTR InstName V1
SYMATTR Value PULSE(0 5 1n 1n 1n .001 .002 1000)
SYMBOL voltage -624 32 R0
SYMATTR InstName CW_V
SYMATTR Value 5
SYMBOL voltage -416 32 R0
WINDOW 123 0 0 Left 2
WINDOW 39 0 0 Left 2
SYMATTR InstName CC_V
SYMATTR Value 0
TEXT -208 264 Left 2 ;+5V VCC
TEXT 672 384 Left 2 ;1
TEXT 672 704 Left 2 ;2
TEXT -208 -8 Left 2 ;+10V
TEXT -328 600 Left 2 ;From Waveform Generator
TEXT 480 808 Left 2 ;Sense PWM
TEXT -328 1000 Left 2 !.tran 0 2 0 .05
TEXT -672 536 Left 2 ;Square Wave at 500 Hz, 50% Duty Cycle
RECTANGLE Normal 176 512 -208 288 2
RECTANGLE Normal 176 240 -208 16 2
RECTANGLE Normal -112 752 -256 624 2
RECTANGLE Normal -256 512 -672 288 2
