Version 4
SHEET 1 1476 680
WIRE 192 0 96 0
WIRE 256 0 192 0
WIRE 480 0 256 0
WIRE 736 0 480 0
WIRE 256 32 256 0
WIRE 96 48 96 0
WIRE 256 128 256 96
WIRE 96 160 96 128
WIRE 736 192 736 0
WIRE 1136 224 1120 224
WIRE 192 240 192 0
WIRE 192 240 160 240
WIRE 320 240 192 240
WIRE 480 240 400 240
WIRE 544 240 480 240
WIRE 1056 240 928 240
WIRE 1120 240 1120 224
WIRE 1120 240 1056 240
WIRE 1296 256 1248 256
WIRE 1328 256 1296 256
WIRE 1296 272 1296 256
WIRE 544 304 496 304
WIRE 1056 304 928 304
WIRE 1104 304 1056 304
WIRE 1104 320 1104 304
WIRE 1136 320 1104 320
WIRE 1344 320 1248 320
WIRE 192 368 160 368
WIRE 320 368 192 368
WIRE 464 368 400 368
WIRE 496 368 496 304
WIRE 496 368 464 368
WIRE 192 528 192 368
WIRE 496 528 192 528
WIRE 736 528 736 384
WIRE 736 528 496 528
WIRE 496 576 496 528
FLAG 96 160 0
FLAG 256 128 0
FLAG 496 576 0
FLAG 160 240 o1
IOPIN 160 240 In
FLAG 160 368 o2
IOPIN 160 368 In
FLAG 480 0 +10V_dcsupply
FLAG 1328 256 omega
IOPIN 1328 256 Out
FLAG 1344 320 enc
IOPIN 1344 320 Out
FLAG 1296 272 0
FLAG 480 240 b1
FLAG 464 368 b2
FLAG 1056 240 dc1
FLAG 1056 304 dc2
FLAG 576 192 X1
SYMBOL voltage 96 32 R0
WINDOW 123 0 0 Left 2
WINDOW 39 0 0 Left 2
SYMATTR InstName V_10V
SYMATTR Value 10
SYMBOL cap 240 32 R0
SYMATTR InstName C1
SYMATTR Value 47µ
SYMBOL res 416 224 R90
WINDOW 0 0 56 VBottom 2
WINDOW 3 32 56 VTop 2
SYMATTR InstName RB1
SYMATTR Value 560
SYMBOL res 416 352 R90
WINDOW 0 0 56 VBottom 2
WINDOW 3 32 56 VTop 2
SYMATTR InstName RB2
SYMATTR Value 560
SYMBOL DCmotor_driver 752 288 R0
SYMATTR InstName X1
SYMBOL DC_motor_model 1184 272 R0
SYMATTR InstName X2
TEXT 64 600 Left 2 !.tran .1 startup
