Version 4
SHEET 1 2932 1500
WIRE -1344 96 -1456 96
WIRE -1264 96 -1344 96
WIRE -1184 96 -1264 96
WIRE -1088 96 -1184 96
WIRE -1344 112 -1344 96
WIRE -1264 112 -1264 96
WIRE -1184 112 -1184 96
WIRE -528 112 -624 112
WIRE -1456 128 -1456 96
WIRE -528 144 -624 144
WIRE -256 144 -288 144
WIRE -96 144 -176 144
WIRE -528 176 -576 176
WIRE -96 272 -96 144
WIRE -48 272 -96 272
WIRE 16 272 -48 272
WIRE 512 272 400 272
WIRE 560 272 512 272
WIRE 576 272 560 272
WIRE -1360 288 -1456 288
WIRE -1248 288 -1360 288
WIRE -1104 288 -1248 288
WIRE -1056 288 -1104 288
WIRE -496 304 -544 304
WIRE -448 304 -496 304
WIRE -320 304 -352 304
WIRE -272 304 -320 304
WIRE 736 304 672 304
WIRE -1360 320 -1360 288
WIRE -1248 320 -1248 288
WIRE -1104 320 -1104 288
WIRE -448 336 -448 304
WIRE -352 336 -352 304
WIRE -48 336 -96 336
WIRE 16 336 -48 336
WIRE 512 336 400 336
WIRE 544 336 512 336
WIRE -1456 352 -1456 288
WIRE -528 368 -768 368
WIRE 544 368 544 336
WIRE 560 368 544 368
WIRE 576 368 560 368
WIRE 720 368 672 368
WIRE -624 400 -624 144
WIRE -528 400 -624 400
WIRE -256 400 -288 400
WIRE -96 400 -96 336
WIRE -96 400 -176 400
WIRE -576 432 -576 176
WIRE -528 432 -576 432
WIRE 208 448 208 416
WIRE -1456 464 -1456 432
WIRE -64 512 -128 512
WIRE 16 512 -64 512
WIRE -624 560 -624 400
WIRE -624 560 -848 560
WIRE 720 560 720 368
WIRE 720 560 272 560
WIRE -576 608 -576 432
WIRE 16 608 -576 608
WIRE -1328 624 -1328 560
WIRE -1216 624 -1216 560
WIRE -1456 688 -1456 608
WIRE 16 720 -576 720
WIRE -624 768 -848 768
WIRE 720 768 272 768
WIRE -64 816 -128 816
WIRE 16 816 -64 816
WIRE -576 896 -576 720
WIRE -528 896 -576 896
WIRE 208 912 208 880
WIRE -624 928 -624 768
WIRE -528 928 -624 928
WIRE -256 928 -288 928
WIRE -96 928 -176 928
WIRE -1328 960 -1328 896
WIRE -1216 960 -1216 896
WIRE -528 960 -768 960
WIRE 560 960 544 960
WIRE 576 960 560 960
WIRE 720 960 720 768
WIRE 720 960 672 960
WIRE -96 992 -96 928
WIRE -48 992 -96 992
WIRE 16 992 -48 992
WIRE 512 992 400 992
WIRE 544 992 544 960
WIRE 544 992 512 992
WIRE -1456 1024 -1456 944
WIRE -496 1024 -544 1024
WIRE -448 1024 -448 992
WIRE -448 1024 -496 1024
WIRE -352 1024 -352 992
WIRE -320 1024 -352 1024
WIRE -272 1024 -320 1024
WIRE 736 1024 672 1024
WIRE -48 1056 -96 1056
WIRE 16 1056 -48 1056
WIRE 512 1056 400 1056
WIRE 560 1056 512 1056
WIRE 576 1056 560 1056
WIRE -576 1152 -576 896
WIRE -528 1152 -576 1152
WIRE -624 1184 -624 928
WIRE -528 1184 -624 1184
WIRE -256 1184 -288 1184
WIRE -96 1184 -96 1056
WIRE -96 1184 -176 1184
WIRE -528 1216 -624 1216
FLAG -1456 208 0
FLAG -1344 176 0
FLAG -1264 176 0
FLAG -1184 176 0
FLAG -624 112 CWL
IOPIN -624 112 In
FLAG -1088 96 +5V_VCC
FLAG -496 304 +5V_VCC
FLAG -320 304 +10V_DCsupply
FLAG -848 560 REF_L
IOPIN -848 560 In
FLAG 736 304 omega_L
IOPIN 736 304 Out
FLAG 208 448 0
FLAG -1104 384 0
FLAG -1248 384 0
FLAG -1360 384 0
FLAG -1456 464 0
FLAG -64 512 +5V_VCC
FLAG -768 368 CCL
IOPIN -768 368 In
FLAG -1328 704 0
FLAG -1216 704 0
FLAG -1456 768 0
FLAG -1328 560 CWL
FLAG -1216 560 CCL
FLAG -1456 608 REF_L
FLAG 512 272 dc1L
FLAG 512 336 dc2L
FLAG -48 272 b1L
FLAG -48 336 b2L
FLAG -624 1216 CWR
IOPIN -624 1216 In
FLAG -496 1024 +5V_VCC
FLAG -320 1024 +10V_DCsupply
FLAG -848 768 REF_R
IOPIN -848 768 In
FLAG 736 1024 omega_R
IOPIN 736 1024 Out
FLAG 208 880 0
FLAG -352 1248 +10V_DCsupply
FLAG -64 816 +5V_VCC
FLAG -768 960 CCR
IOPIN -768 960 In
FLAG -1328 1040 0
FLAG -1216 1040 0
FLAG -1456 1104 0
FLAG -1328 896 CWR
FLAG -1216 896 CCR
FLAG -1456 944 REF_R
FLAG 512 1056 dc1R
FLAG 512 992 dc2R
FLAG -48 1056 b1R
FLAG -48 992 b2R
FLAG 208 1104 +10V_DCsupply
FLAG -448 1248 +5V_VCC
FLAG -448 80 +5V_VCC
FLAG -352 80 +10V_DCsupply
FLAG -1056 288 +10V_DCsupply
FLAG 208 224 +10V_DCsupply
SYMBOL voltage -1456 112 R0
SYMATTR InstName VCC
SYMATTR Value 5
SYMBOL cap -1360 112 R0
SYMATTR InstName C9
SYMATTR Value 47µ
SYMBOL cap -1280 112 R0
WINDOW 3 25 45 Left 2
SYMATTR Value 0.1µ
SYMATTR InstName C8
SYMBOL cap -1200 112 R0
SYMATTR InstName C7
SYMATTR Value 0.1µ
SYMBOL res -272 160 R270
WINDOW 0 32 56 VTop 2
WINDOW 3 0 56 VBottom 2
SYMATTR InstName Rb1
SYMATTR Value 642
SYMBOL res -272 416 R270
WINDOW 0 32 56 VTop 2
WINDOW 3 0 56 VBottom 2
SYMATTR InstName Rb2
SYMATTR Value 642
SYMBOL DCmotor_driver 224 320 R0
SYMATTR InstName X3
SYMBOL DC_motor_model 608 320 R0
SYMATTR InstName X4
SYMBOL cap -1088 320 M0
SYMATTR InstName C5
SYMATTR Value 0.1µ
SYMBOL cap -1232 320 M0
SYMATTR InstName C4
SYMATTR Value 0.1µ
SYMBOL cap -1344 320 M0
SYMATTR InstName C3
SYMATTR Value 47µ
SYMBOL voltage -1456 336 M0
SYMATTR InstName V_10V
SYMATTR Value 10
SYMBOL Feedback_control_circuit -416 144 R0
SYMATTR InstName X6
SYMBOL Feedback_control_circuit -416 400 R0
SYMATTR InstName X7
SYMBOL voltage -1328 608 R0
WINDOW 123 0 0 Left 2
WINDOW 39 0 0 Left 2
SYMATTR InstName V1
SYMATTR Value 5
SYMBOL voltage -1216 608 R0
WINDOW 123 0 0 Left 2
WINDOW 39 0 0 Left 2
SYMATTR InstName V2
SYMATTR Value 0
SYMBOL voltage -1456 672 R0
WINDOW 123 0 0 Left 2
WINDOW 39 0 0 Left 2
SYMATTR InstName V3
SYMATTR Value PULSE(0 5 1n 1n 1n .001 .002 1000)
SYMBOL speed_circuit_schematic 128 560 R0
SYMATTR InstName X1
SYMBOL res -272 1168 M90
WINDOW 0 0 56 VBottom 2
WINDOW 3 32 56 VTop 2
SYMATTR InstName Rb3
SYMATTR Value 642
SYMBOL res -272 912 M90
WINDOW 0 0 56 VBottom 2
WINDOW 3 32 56 VTop 2
SYMATTR InstName Rb4
SYMATTR Value 642
SYMBOL DCmotor_driver 224 1008 M180
SYMATTR InstName X2
SYMBOL DC_motor_model 608 1008 M180
SYMATTR InstName X5
SYMBOL Feedback_control_circuit -416 1184 M180
SYMATTR InstName X8
SYMBOL Feedback_control_circuit -416 928 M180
SYMATTR InstName X9
SYMBOL voltage -1328 944 R0
WINDOW 123 0 0 Left 2
WINDOW 39 0 0 Left 2
SYMATTR InstName V4
SYMATTR Value 0
SYMBOL voltage -1216 944 R0
WINDOW 123 0 0 Left 2
WINDOW 39 0 0 Left 2
SYMATTR InstName V5
SYMATTR Value 5
SYMBOL voltage -1456 1008 R0
WINDOW 123 0 0 Left 2
WINDOW 39 0 0 Left 2
SYMATTR InstName V6
SYMATTR Value PULSE(0 5 1n 1n 1n .001 .002 1000)
SYMBOL speed_circuit_schematic 128 768 M180
SYMATTR InstName X10
TEXT -1456 1208 Left 2 !.tran 0 2 0 .05
