Version 4
SHEET 1 880 680
WIRE -160 -128 -272 -128
WIRE -80 -128 -160 -128
WIRE 240 -128 -80 -128
WIRE -160 -48 -160 -128
WIRE -272 -16 -272 -128
WIRE 240 64 240 -128
WIRE 672 80 608 80
WIRE 720 80 672 80
WIRE -80 96 -80 -128
WIRE -16 96 -80 96
WIRE 128 96 64 96
WIRE 128 112 128 96
WIRE 176 112 128 112
WIRE 464 112 304 112
WIRE 672 112 672 80
WIRE -272 160 -272 64
WIRE -160 160 -160 16
WIRE 176 160 128 160
WIRE 464 160 304 160
WIRE 720 160 608 160
WIRE -16 192 -80 192
WIRE 128 192 128 160
WIRE 128 192 64 192
WIRE -80 224 -80 192
WIRE 240 272 240 208
FLAG -272 160 0
FLAG -160 160 0
FLAG -80 224 0
FLAG 240 272 0
FLAG 720 160 enc
IOPIN 720 160 Out
FLAG 720 80 omega
IOPIN 720 80 Out
FLAG 672 112 0
SYMBOL res 80 80 R90
WINDOW 0 0 56 VBottom 2
WINDOW 3 32 56 VTop 2
SYMATTR InstName RB1
SYMATTR Value {RB}
SYMBOL res 80 176 R90
WINDOW 0 0 56 VBottom 2
WINDOW 3 32 56 VTop 2
SYMATTR InstName RB2
SYMATTR Value {RB}
SYMBOL voltage -272 -32 R0
WINDOW 123 0 0 Left 2
WINDOW 39 0 0 Left 2
SYMATTR InstName V1
SYMATTR Value 10
SYMBOL cap -176 -48 R0
SYMATTR InstName C1
SYMATTR Value 47µ
SYMBOL DC_Motor_Driver 240 128 R0
SYMATTR InstName X1
SYMBOL DC_motor_model 528 128 R0
SYMATTR InstName X2
TEXT -304 296 Left 2 !.tran 0 10ms 1ms
TEXT -296 264 Left 2 !.param RB 640
